Circuit: * E:\Personal\Experiments\01-Electronics\01-Analog\Filters\RCFilters\LPF\LP_RC_FILT.asc


Date: Sat Apr 13 19:28:29 2024
Total elapsed time: 0.093 seconds.

tnom = 27
temp = 27
method = trap
totiter = 0
traniter = 0
tranpoints = 0
accept = 0
rejected = 0
matrix size = 3
fillins = 1
solver = Normal

