Circuit: * E:\Personal\Experiments\01-Electronics\01-Analog\Filters\RCFilters\HPF\LP_RC_FILT.asc


Date: Sun Apr 21 19:12:46 2024
Total elapsed time: 0.084 seconds.

tnom = 27
temp = 27
method = trap
totiter = 0
traniter = 0
tranpoints = 0
accept = 0
rejected = 0
matrix size = 4
fillins = 0
solver = Normal

